*Heading
File generated by TexGen v3.12.0
************
*** MESH ***
************
*Node
1, -4.44089e-16, 0.880423, 0.125285
2, -4.44089e-16, 0.823607, 0.11365
3, -4.44089e-16, 0.735114, 0.10597
4, -4.44089e-16, 0.623607, 0.101483
5, -4.44089e-16, 0.5, 0.1
6, -4.44089e-16, 0.376393, 0.101483
7, -4.44089e-16, 0.264886, 0.10597
8, -4.44089e-16, 0.176393, 0.11365
9, -4.44089e-16, 0.119577, 0.125285
10, -4.44089e-16, 0.9, 0.15
11, -4.44089e-16, 0.866162, 0.15
12, -4.44089e-16, 0.808129, 0.15
13, -4.44089e-16, 0.72347, 0.15
14, -4.44089e-16, 0.617866, 0.15
15, -4.44089e-16, 0.5, 0.15
16, -4.44089e-16, 0.382134, 0.15
17, -4.44089e-16, 0.27653, 0.15
18, -4.44089e-16, 0.191871, 0.15
19, -4.44089e-16, 0.133838, 0.15
20, -4.44089e-16, 0.1, 0.15
** ... 4569 like lines cut
*Element, Type=C3D6
1, 30, 40, 39, 1, 11, 10
2, 38, 49, 48, 9, 20, 19
3, 39, 40, 50, 10, 11, 21
4, 48, 49, 58, 19, 20, 29
5, 59, 69, 68, 30, 40, 39
6, 67, 78, 77, 38, 49, 48
7, 68, 69, 79, 39, 40, 50
8, 77, 78, 87, 48, 49, 58
9, 88, 98, 97, 59, 69, 68
10, 96, 107, 106, 67, 78, 77
11, 97, 98, 108, 68, 69, 79
12, 106, 107, 116, 77, 78, 87
13, 117, 127, 126, 88, 98, 97
14, 125, 136, 135, 96, 107, 106
15, 126, 127, 137, 97, 98, 108
16, 135, 136, 145, 106, 107, 116
17, 146, 156, 155, 117, 127, 126
18, 154, 165, 164, 125, 136, 135
19, 155, 156, 166, 126, 127, 137
20, 164, 165, 174, 135, 136, 145
** ... 588 like lines cut
*Element, Type=C3D8R
609, 30, 31, 41, 40, 1, 2, 12, 11
610, 31, 32, 42, 41, 2, 3, 13, 12
611, 32, 33, 43, 42, 3, 4, 14, 13
612, 33, 34, 44, 43, 4, 5, 15, 14
613, 34, 35, 45, 44, 5, 6, 16, 15
614, 35, 36, 46, 45, 6, 7, 17, 16
615, 36, 37, 47, 46, 7, 8, 18, 17
616, 37, 38, 48, 47, 8, 9, 19, 18
617, 40, 41, 51, 50, 11, 12, 22, 21
618, 41, 42, 52, 51, 12, 13, 23, 22
619, 42, 43, 53, 52, 13, 14, 24, 23
620, 43, 44, 54, 53, 14, 15, 25, 24
621, 44, 45, 55, 54, 15, 16, 26, 25
622, 45, 46, 56, 55, 16, 17, 27, 26
623, 46, 47, 57, 56, 17, 18, 28, 27
624, 47, 48, 58, 57, 18, 19, 29, 28
625, 59, 60, 70, 69, 30, 31, 41, 40
626, 60, 61, 71, 70, 31, 32, 42, 41
627, 61, 62, 72, 71, 32, 33, 43, 42
628, 62, 63, 73, 72, 33, 34, 44, 43
** ... 2412 like lines cut
********************
*** ORIENTATIONS ***
********************
** Orientation vectors
** 1st vector represents the fibre direction
** 2nd vector is an arbitrary vector perpendicular to the first
*Distribution Table, Name=TexGenOrientationVectors
COORD3D,COORD3D
*Distribution, Location=Element, Table=TexGenOrientationVectors, Name=TexGenOrientationVectors, Input=DryFibreWholeSurfaceTest.ori
*Orientation, Name=TexGenOrientations, Definition=coordinates
TexGenOrientationVectors
1, 0
********************
*** ELEMENT SETS ***
********************
** TexGen generates a number of element sets:
** All - Contains all elements
** Matrix - Contains all elements belonging to the matrix
** YarnX - Where X represents the yarn index
*ElSet, ElSet=All, Generate
1, 3040, 1
*ElSet, ElSet=Yarn0
1, 2, 3, 4, 5, 6, 7, 8, 9, 10, 11, 12, 13, 14, 15, 16
17, 18, 19, 20, 21, 22, 23, 24, 25, 26, 27, 28, 29, 30, 31, 32
33, 34, 35, 36, 37, 38, 39, 40, 41, 42, 43, 44, 45, 46, 47, 48
49, 50, 51, 52, 53, 54, 55, 56, 57, 58, 59, 60, 61, 62, 63, 64
65, 66, 67, 68, 69, 70, 71, 72, 73, 74, 75, 76, 77, 78, 79, 80
81, 82, 83, 84, 85, 86, 87, 88, 89, 90, 91, 92, 93, 94, 95, 96
609, 610, 611, 612, 613, 614, 615, 616, 617, 618, 619, 620, 621, 622, 623, 624
625, 626, 627, 628, 629, 630, 631, 632, 633, 634, 635, 636, 637, 638, 639, 640
641, 642, 643, 644, 645, 646, 647, 648, 649, 650, 651, 652, 653, 654, 655, 656
657, 658, 659, 660, 661, 662, 663, 664, 665, 666, 667, 668, 669, 670, 671, 672
673, 674, 675, 676, 677, 678, 679, 680, 681, 682, 683, 684, 685, 686, 687, 688
689, 690, 691, 692, 693, 694, 695, 696, 697, 698, 699, 700, 701, 702, 703, 704
705, 706, 707, 708, 709, 710, 711, 712, 713, 714, 715, 716, 717, 718, 719, 720
721, 722, 723, 724, 725, 726, 727, 728, 729, 730, 731, 732, 733, 734, 735, 736
737, 738, 739, 740, 741, 742, 743, 744, 745, 746, 747, 748, 749, 750, 751, 752
753, 754, 755, 756, 757, 758, 759, 760, 761, 762, 763, 764, 765, 766, 767, 768
769, 770, 771, 772, 773, 774, 775, 776, 777, 778, 779, 780, 781, 782, 783, 784
785, 786, 787, 788, 789, 790, 791, 792, 793, 794, 795, 796, 797, 798, 799, 800
801, 802, 803, 804, 805, 806, 807, 808, 809, 810, 811, 812, 813, 814, 815, 816
817, 818, 819, 820, 821, 822, 823, 824, 825, 826, 827, 828, 829, 830, 831, 832
** ... 10 like lines cut
*ElSet, ElSet=Yarn1
97, 98, 99, 100, 101, 102, 103, 104, 105, 106, 107, 108, 109, 110, 111, 112
113, 114, 115, 116, 117, 118, 119, 120, 121, 122, 123, 124, 125, 126, 127, 128
129, 130, 131, 132, 133, 134, 135, 136, 137, 138, 139, 140, 141, 142, 143, 144
145, 146, 147, 148, 149, 150, 151, 152, 153, 154, 155, 156, 157, 158, 159, 160
161, 162, 163, 164, 165, 166, 167, 168, 169, 170, 171, 172, 173, 174, 175, 176
177, 178, 179, 180, 181, 182, 183, 184, 185, 186, 187, 188, 189, 190, 191, 192
193, 194, 195, 196, 197, 198, 199, 200, 201, 202, 203, 204, 205, 206, 207, 208
209, 210, 211, 212, 213, 214, 215, 216, 217, 218, 219, 220, 221, 222, 223, 224
225, 226, 227, 228, 229, 230, 231, 232, 233, 234, 235, 236, 237, 238, 239, 240
241, 242, 243, 244, 245, 246, 247, 248, 249, 250, 251, 252, 253, 254, 255, 256
257, 258, 259, 260, 261, 262, 263, 264, 265, 266, 267, 268, 269, 270, 271, 272
273, 274, 275, 276, 277, 278, 279, 280, 281, 282, 283, 284, 285, 286, 287, 288
289, 290, 291, 292, 293, 294, 295, 296, 297, 298, 299, 300, 301, 302, 303, 304
993, 994, 995, 996, 997, 998, 999, 1000, 1001, 1002, 1003, 1004, 1005, 1006, 1007, 1008
1009, 1010, 1011, 1012, 1013, 1014, 1015, 1016, 1017, 1018, 1019, 1020, 1021, 1022, 1023, 1024
1025, 1026, 1027, 1028, 1029, 1030, 1031, 1032, 1033, 1034, 1035, 1036, 1037, 1038, 1039, 1040
1041, 1042, 1043, 1044, 1045, 1046, 1047, 1048, 1049, 1050, 1051, 1052, 1053, 1054, 1055, 1056
1057, 1058, 1059, 1060, 1061, 1062, 1063, 1064, 1065, 1066, 1067, 1068, 1069, 1070, 1071, 1072
1073, 1074, 1075, 1076, 1077, 1078, 1079, 1080, 1081, 1082, 1083, 1084, 1085, 1086, 1087, 1088
1089, 1090, 1091, 1092, 1093, 1094, 1095, 1096, 1097, 1098, 1099, 1100, 1101, 1102, 1103, 1104
** ... 45 like lines cut
*ElSet, ElSet=Yarn2
305, 306, 307, 308, 309, 310, 311, 312, 313, 314, 315, 316, 317, 318, 319, 320
321, 322, 323, 324, 325, 326, 327, 328, 329, 330, 331, 332, 333, 334, 335, 336
337, 338, 339, 340, 341, 342, 343, 344, 345, 346, 347, 348, 349, 350, 351, 352
353, 354, 355, 356, 357, 358, 359, 360, 361, 362, 363, 364, 365, 366, 367, 368
369, 370, 371, 372, 373, 374, 375, 376, 377, 378, 379, 380, 1825, 1826, 1827, 1828
1829, 1830, 1831, 1832, 1833, 1834, 1835, 1836, 1837, 1838, 1839, 1840, 1841, 1842, 1843, 1844
1845, 1846, 1847, 1848, 1849, 1850, 1851, 1852, 1853, 1854, 1855, 1856, 1857, 1858, 1859, 1860
1861, 1862, 1863, 1864, 1865, 1866, 1867, 1868, 1869, 1870, 1871, 1872, 1873, 1874, 1875, 1876
1877, 1878, 1879, 1880, 1881, 1882, 1883, 1884, 1885, 1886, 1887, 1888, 1889, 1890, 1891, 1892
1893, 1894, 1895, 1896, 1897, 1898, 1899, 1900, 1901, 1902, 1903, 1904, 1905, 1906, 1907, 1908
1909, 1910, 1911, 1912, 1913, 1914, 1915, 1916, 1917, 1918, 1919, 1920, 1921, 1922, 1923, 1924
1925, 1926, 1927, 1928, 1929, 1930, 1931, 1932, 1933, 1934, 1935, 1936, 1937, 1938, 1939, 1940
1941, 1942, 1943, 1944, 1945, 1946, 1947, 1948, 1949, 1950, 1951, 1952, 1953, 1954, 1955, 1956
1957, 1958, 1959, 1960, 1961, 1962, 1963, 1964, 1965, 1966, 1967, 1968, 1969, 1970, 1971, 1972
1973, 1974, 1975, 1976, 1977, 1978, 1979, 1980, 1981, 1982, 1983, 1984, 1985, 1986, 1987, 1988
1989, 1990, 1991, 1992, 1993, 1994, 1995, 1996, 1997, 1998, 1999, 2000, 2001, 2002, 2003, 2004
2005, 2006, 2007, 2008, 2009, 2010, 2011, 2012, 2013, 2014, 2015, 2016, 2017, 2018, 2019, 2020
2021, 2022, 2023, 2024, 2025, 2026, 2027, 2028, 2029, 2030, 2031, 2032, 2033, 2034, 2035, 2036
2037, 2038, 2039, 2040, 2041, 2042, 2043, 2044, 2045, 2046, 2047, 2048, 2049, 2050, 2051, 2052
2053, 2054, 2055, 2056, 2057, 2058, 2059, 2060, 2061, 2062, 2063, 2064, 2065, 2066, 2067, 2068
** ... 4 like lines cut
*ElSet, ElSet=Yarn3
381, 382, 383, 384, 385, 386, 387, 388, 389, 390, 391, 392, 393, 394, 395, 396
397, 398, 399, 400, 401, 402, 403, 404, 405, 406, 407, 408, 409, 410, 411, 412
413, 414, 415, 416, 417, 418, 419, 420, 421, 422, 423, 424, 425, 426, 427, 428
429, 430, 431, 432, 433, 434, 435, 436, 437, 438, 439, 440, 441, 442, 443, 444
445, 446, 447, 448, 449, 450, 451, 452, 453, 454, 455, 456, 2129, 2130, 2131, 2132
2133, 2134, 2135, 2136, 2137, 2138, 2139, 2140, 2141, 2142, 2143, 2144, 2145, 2146, 2147, 2148
2149, 2150, 2151, 2152, 2153, 2154, 2155, 2156, 2157, 2158, 2159, 2160, 2161, 2162, 2163, 2164
2165, 2166, 2167, 2168, 2169, 2170, 2171, 2172, 2173, 2174, 2175, 2176, 2177, 2178, 2179, 2180
2181, 2182, 2183, 2184, 2185, 2186, 2187, 2188, 2189, 2190, 2191, 2192, 2193, 2194, 2195, 2196
2197, 2198, 2199, 2200, 2201, 2202, 2203, 2204, 2205, 2206, 2207, 2208, 2209, 2210, 2211, 2212
2213, 2214, 2215, 2216, 2217, 2218, 2219, 2220, 2221, 2222, 2223, 2224, 2225, 2226, 2227, 2228
2229, 2230, 2231, 2232, 2233, 2234, 2235, 2236, 2237, 2238, 2239, 2240, 2241, 2242, 2243, 2244
2245, 2246, 2247, 2248, 2249, 2250, 2251, 2252, 2253, 2254, 2255, 2256, 2257, 2258, 2259, 2260
2261, 2262, 2263, 2264, 2265, 2266, 2267, 2268, 2269, 2270, 2271, 2272, 2273, 2274, 2275, 2276
2277, 2278, 2279, 2280, 2281, 2282, 2283, 2284, 2285, 2286, 2287, 2288, 2289, 2290, 2291, 2292
2293, 2294, 2295, 2296, 2297, 2298, 2299, 2300, 2301, 2302, 2303, 2304, 2305, 2306, 2307, 2308
2309, 2310, 2311, 2312, 2313, 2314, 2315, 2316, 2317, 2318, 2319, 2320, 2321, 2322, 2323, 2324
2325, 2326, 2327, 2328, 2329, 2330, 2331, 2332, 2333, 2334, 2335, 2336, 2337, 2338, 2339, 2340
2341, 2342, 2343, 2344, 2345, 2346, 2347, 2348, 2349, 2350, 2351, 2352, 2353, 2354, 2355, 2356
2357, 2358, 2359, 2360, 2361, 2362, 2363, 2364, 2365, 2366, 2367, 2368, 2369, 2370, 2371, 2372
** ... 4 like lines cut
*ElSet, ElSet=Yarn4
457, 458, 459, 460, 461, 462, 463, 464, 465, 466, 467, 468, 469, 470, 471, 472
473, 474, 475, 476, 477, 478, 479, 480, 481, 482, 483, 484, 485, 486, 487, 488
489, 490, 491, 492, 493, 494, 495, 496, 497, 498, 499, 500, 501, 502, 503, 504
505, 506, 507, 508, 509, 510, 511, 512, 513, 514, 515, 516, 517, 518, 519, 520
521, 522, 523, 524, 525, 526, 527, 528, 529, 530, 531, 532, 2433, 2434, 2435, 2436
2437, 2438, 2439, 2440, 2441, 2442, 2443, 2444, 2445, 2446, 2447, 2448, 2449, 2450, 2451, 2452
2453, 2454, 2455, 2456, 2457, 2458, 2459, 2460, 2461, 2462, 2463, 2464, 2465, 2466, 2467, 2468
2469, 2470, 2471, 2472, 2473, 2474, 2475, 2476, 2477, 2478, 2479, 2480, 2481, 2482, 2483, 2484
2485, 2486, 2487, 2488, 2489, 2490, 2491, 2492, 2493, 2494, 2495, 2496, 2497, 2498, 2499, 2500
2501, 2502, 2503, 2504, 2505, 2506, 2507, 2508, 2509, 2510, 2511, 2512, 2513, 2514, 2515, 2516
2517, 2518, 2519, 2520, 2521, 2522, 2523, 2524, 2525, 2526, 2527, 2528, 2529, 2530, 2531, 2532
2533, 2534, 2535, 2536, 2537, 2538, 2539, 2540, 2541, 2542, 2543, 2544, 2545, 2546, 2547, 2548
2549, 2550, 2551, 2552, 2553, 2554, 2555, 2556, 2557, 2558, 2559, 2560, 2561, 2562, 2563, 2564
2565, 2566, 2567, 2568, 2569, 2570, 2571, 2572, 2573, 2574, 2575, 2576, 2577, 2578, 2579, 2580
2581, 2582, 2583, 2584, 2585, 2586, 2587, 2588, 2589, 2590, 2591, 2592, 2593, 2594, 2595, 2596
2597, 2598, 2599, 2600, 2601, 2602, 2603, 2604, 2605, 2606, 2607, 2608, 2609, 2610, 2611, 2612
2613, 2614, 2615, 2616, 2617, 2618, 2619, 2620, 2621, 2622, 2623, 2624, 2625, 2626, 2627, 2628
2629, 2630, 2631, 2632, 2633, 2634, 2635, 2636, 2637, 2638, 2639, 2640, 2641, 2642, 2643, 2644
2645, 2646, 2647, 2648, 2649, 2650, 2651, 2652, 2653, 2654, 2655, 2656, 2657, 2658, 2659, 2660
2661, 2662, 2663, 2664, 2665, 2666, 2667, 2668, 2669, 2670, 2671, 2672, 2673, 2674, 2675, 2676
** ... 4 like lines cut
*ElSet, ElSet=Yarn5
533, 534, 535, 536, 537, 538, 539, 540, 541, 542, 543, 544, 545, 546, 547, 548
549, 550, 551, 552, 553, 554, 555, 556, 557, 558, 559, 560, 561, 562, 563, 564
565, 566, 567, 568, 569, 570, 571, 572, 573, 574, 575, 576, 577, 578, 579, 580
581, 582, 583, 584, 585, 586, 587, 588, 589, 590, 591, 592, 593, 594, 595, 596
597, 598, 599, 600, 601, 602, 603, 604, 605, 606, 607, 608, 2737, 2738, 2739, 2740
2741, 2742, 2743, 2744, 2745, 2746, 2747, 2748, 2749, 2750, 2751, 2752, 2753, 2754, 2755, 2756
2757, 2758, 2759, 2760, 2761, 2762, 2763, 2764, 2765, 2766, 2767, 2768, 2769, 2770, 2771, 2772
2773, 2774, 2775, 2776, 2777, 2778, 2779, 2780, 2781, 2782, 2783, 2784, 2785, 2786, 2787, 2788
2789, 2790, 2791, 2792, 2793, 2794, 2795, 2796, 2797, 2798, 2799, 2800, 2801, 2802, 2803, 2804
2805, 2806, 2807, 2808, 2809, 2810, 2811, 2812, 2813, 2814, 2815, 2816, 2817, 2818, 2819, 2820
2821, 2822, 2823, 2824, 2825, 2826, 2827, 2828, 2829, 2830, 2831, 2832, 2833, 2834, 2835, 2836
2837, 2838, 2839, 2840, 2841, 2842, 2843, 2844, 2845, 2846, 2847, 2848, 2849, 2850, 2851, 2852
2853, 2854, 2855, 2856, 2857, 2858, 2859, 2860, 2861, 2862, 2863, 2864, 2865, 2866, 2867, 2868
2869, 2870, 2871, 2872, 2873, 2874, 2875, 2876, 2877, 2878, 2879, 2880, 2881, 2882, 2883, 2884
2885, 2886, 2887, 2888, 2889, 2890, 2891, 2892, 2893, 2894, 2895, 2896, 2897, 2898, 2899, 2900
2901, 2902, 2903, 2904, 2905, 2906, 2907, 2908, 2909, 2910, 2911, 2912, 2913, 2914, 2915, 2916
2917, 2918, 2919, 2920, 2921, 2922, 2923, 2924, 2925, 2926, 2927, 2928, 2929, 2930, 2931, 2932
2933, 2934, 2935, 2936, 2937, 2938, 2939, 2940, 2941, 2942, 2943, 2944, 2945, 2946, 2947, 2948
2949, 2950, 2951, 2952, 2953, 2954, 2955, 2956, 2957, 2958, 2959, 2960, 2961, 2962, 2963, 2964
2965, 2966, 2967, 2968, 2969, 2970, 2971, 2972, 2973, 2974, 2975, 2976, 2977, 2978, 2979, 2980
** ... 4 like lines cut
*****************
*** MATERIALS ***
*****************
*Material, Name=Mat0
*Elastic
3e+09, 0.2
*Damping, alpha= 3.75e+6
*Density
1.37e-09,
*DepVar
5
*Material, Name=Mat1
*Elastic, type=ENGINEERING CONSTANTS
2e+11, 1e+10, 1e+10, 0.3, 0.4, 0.4, 5e+09, 5e+09
5e+09
*Damping, alpha= 3.75e+6
*Density
1.37e-09,
*DepVar
5
*Solid Section, ElSet=Yarn0, Material=Mat1, Orientation=TexGenOrientations, controls=HourglassEnhanced
1.0,
*Solid Section, ElSet=Yarn1, Material=Mat1, Orientation=TexGenOrientations, controls=HourglassEnhanced
1.0,
*Solid Section, ElSet=Yarn2, Material=Mat1, Orientation=TexGenOrientations, controls=HourglassEnhanced
1.0,
*Solid Section, ElSet=Yarn3, Material=Mat1, Orientation=TexGenOrientations, controls=HourglassEnhanced
1.0,
*Solid Section, ElSet=Yarn4, Material=Mat1, Orientation=TexGenOrientations, controls=HourglassEnhanced
1.0,
*Solid Section, ElSet=Yarn5, Material=Mat1, Orientation=TexGenOrientations, controls=HourglassEnhanced
1.0,
*Section Controls, Name=HourglassEnhanced, Hourglass=Enhanced, SECOND ORDER ACCURACY=YES
** Note: Additional element data are stored as a depvars:
********************
*** ELEMENT DATA ***
********************
** Element data stored as a depvars 
** 1 - Yarn Index (-1 for matrix, first yarn starting at 0) 
** 2/3 - Location (x and y cross-section coordinates of element relative to yarn centerline) 
** 4 - Volume fraction 
** 5 - Distance of element from the surface of the yarn (for yarn elements only, distance is negative) 
*Initial Conditions, Type=Solution, Input=DryFibreWholeSurfaceTest.eld
***************************
*** SURFACE DEFINITIONS ***
***************************
*Surface, Name=YarnSurf0, Type=Element
609, S3
610, S3
611, S3
612, S3
613, S3
614, S3
615, S3
616, S3
617, S5
618, S5
619, S5
620, S5
621, S5
622, S5
623, S5
624, S5
625, S3
626, S3
627, S3
628, S3
** ... 460 like lines cut
*Surface, Name=YarnSurf1, Type=Element
993, S3
994, S3
995, S3
996, S3
997, S5
998, S5
999, S5
1000, S5
1001, S5
1002, S5
1003, S5
1004, S5
1005, S3
1006, S3
1007, S3
1008, S3
1009, S3
1010, S3
1011, S3
1012, S3
** ... 1020 like lines cut
*Surface, Name=YarnSurf2, Type=Element
1825, S3
1826, S3
1827, S3
1828, S3
1829, S3
1830, S3
1831, S3
1832, S3
1833, S5
1834, S5
1835, S5
1836, S5
1837, S5
1838, S5
1839, S5
1840, S5
1841, S3
1842, S3
1843, S3
1844, S3
** ... 360 like lines cut
*Surface, Name=YarnSurf3, Type=Element
2129, S3
2130, S3
2131, S3
2132, S3
2133, S3
2134, S3
2135, S3
2136, S3
2137, S5
2138, S5
2139, S5
2140, S5
2141, S5
2142, S5
2143, S5
2144, S5
2145, S3
2146, S3
2147, S3
2148, S3
** ... 360 like lines cut
*Surface, Name=YarnSurf4, Type=Element
2433, S3
2434, S3
2435, S3
2436, S3
2437, S3
2438, S3
2439, S3
2440, S3
2441, S5
2442, S5
2443, S5
2444, S5
2445, S5
2446, S5
2447, S5
2448, S5
2449, S3
2450, S3
2451, S3
2452, S3
** ... 360 like lines cut
*Surface, Name=YarnSurf5, Type=Element
2737, S3
2738, S3
2739, S3
2740, S3
2741, S3
2742, S3
2743, S3
2744, S3
2745, S5
2746, S5
2747, S5
2748, S5
2749, S5
2750, S5
2751, S5
2752, S5
2753, S3
2754, S3
2755, S3
2756, S3
** ... 360 like lines cut
************************************
*** PERIODIC BOUNDARY CONDITIONS ***
************************************
*NSet, NSet=Bound0A, Unsorted
1, 2, 3, 4, 5, 6, 7, 8, 9, 10, 11, 12, 13, 14, 15, 16
17, 18, 19, 20, 21, 22, 23, 24, 25, 26, 27, 28, 29, 726, 727, 728
729, 730, 731, 732, 733, 734, 735, 736, 737, 738, 739, 740, 741, 742, 743, 744
745, 746, 747, 748, 749, 750, 751, 754, 755, 756, 757, 758, 764, 765, 766, 767
768
*NSet, NSet=Bound0B, Unsorted
697, 698, 699, 700, 701, 702, 703, 704, 705, 706, 707, 708, 709, 710, 711, 712
713, 714, 715, 716, 717, 718, 719, 720, 721, 722, 723, 724, 725, 2231, 2232, 2233
2237, 2238, 2239, 2240, 2241, 2242, 2243, 2244, 2245, 2246, 2247, 2248, 2249, 2250, 2251, 2252
2253, 2254, 2255, 2256, 2257, 2258, 2259, 2260, 2261, 2262, 2263, 2264, 2265, 2266, 2267, 2268
2269
*Node
4590, 0, 0, 0
*NSet, NSet=Dummy0
4590
*Equation
3
Bound0A, 1, 1.0, Bound0B, 1, -1.0, Dummy0, 1, 1.0
*Equation
3
Bound0A, 2, 1.0, Bound0B, 2, -1.0, Dummy0, 2, 1.0
*Equation
3
Bound0A, 3, 1.0, Bound0B, 3, -1.0, Dummy0, 3, 1.0
*NSet, NSet=Bound1A, Unsorted
2270, 2271, 2272, 2273, 2274, 2275, 2276, 2277, 2278, 2279, 2280, 2281, 2282, 2283, 2284, 2285
2286, 2287, 2288, 2289, 2290, 2291, 2292, 2293, 2294, 2295, 2296, 2297, 2298, 2850, 2851, 2852
2853, 2854, 2855, 2856, 2857, 2858, 2859, 2860, 2861, 2862, 2863, 2864, 2865, 2866, 2867, 2868
2869, 2870, 2871, 2872, 2873, 2874, 2875, 2876, 2877, 2878, 3430, 3431, 3432, 3433, 3434, 3435
3436, 3437, 3438, 3439, 3440, 3441, 3442, 3443, 3444, 3445, 3446, 3447, 3448, 3449, 3450, 3451
3452, 3453, 3454, 3455, 3456, 3457, 3458, 4010, 4011, 4012, 4013, 4014, 4015, 4016, 4017, 4018
4019, 4020, 4021, 4022, 4023, 4024, 4025, 4026, 4027, 4028, 4029, 4030, 4031, 4032, 4033, 4034
4035, 4036, 4037, 4038
*NSet, NSet=Bound1B, Unsorted
2821, 2822, 2823, 2824, 2825, 2826, 2827, 2828, 2829, 2830, 2831, 2832, 2833, 2834, 2835, 2836
2837, 2838, 2839, 2840, 2841, 2842, 2843, 2844, 2845, 2846, 2847, 2848, 2849, 3401, 3402, 3403
3404, 3405, 3406, 3407, 3408, 3409, 3410, 3411, 3412, 3413, 3414, 3415, 3416, 3417, 3418, 3419
3420, 3421, 3422, 3423, 3424, 3425, 3426, 3427, 3428, 3429, 3981, 3982, 3983, 3984, 3985, 3986
3987, 3988, 3989, 3990, 3991, 3992, 3993, 3994, 3995, 3996, 3997, 3998, 3999, 4000, 4001, 4002
4003, 4004, 4005, 4006, 4007, 4008, 4009, 4561, 4562, 4563, 4564, 4565, 4566, 4567, 4568, 4569
4570, 4571, 4572, 4573, 4574, 4575, 4576, 4577, 4578, 4579, 4580, 4581, 4582, 4583, 4584, 4585
4586, 4587, 4588, 4589
*Node
4591, 0, 0, 0
*NSet, NSet=Dummy1
4591
*Equation
3
Bound1A, 1, 1.0, Bound1B, 1, -1.0, Dummy1, 1, 1.0
*Equation
3
Bound1A, 2, 1.0, Bound1B, 2, -1.0, Dummy1, 2, 1.0
*Equation
3
Bound1A, 3, 1.0, Bound1B, 3, -1.0, Dummy1, 3, 1.0
*** Nodes containing domain AABB ***
*Node
4592, -0.0221276, 0.0105263, -0.0499952
4593, 2.02179, 1.56053, 0.349995
*NSet, NSet=Domain
4592, 4593
************
*** INTERACTION PROPERTIES ***
************
*Surface Interaction, name=YARN
*Friction
0.112,
*Surface Behavior, pressure-overclosure=HARD
************
*** STEP ***
************
*Step, NLGeom=Yes
*Dynamic, Explicit
,2.5e-5
*Bulk Viscosity
0.06, 1.2
***************************
*** CONTACT DEFINITIONS ***
***************************
*** WARNING: Contacts are only created for upper and lower surfaces.
***          Any contacts between binder yarns and sides of warp and weft
***          yarns must be specified manually
*Contact Pair, Interaction=Yarn
YarnSurf0, YarnSurf3
*Contact Pair, Interaction=Yarn
YarnSurf0, YarnSurf5
*Contact Pair, Interaction=Yarn
YarnSurf1, YarnSurf2
*Contact Pair, Interaction=Yarn
YarnSurf2, YarnSurf0
*Contact Pair, Interaction=Yarn
YarnSurf4, YarnSurf0
*Contact Pair, Interaction=Yarn
YarnSurf5, YarnSurf1
*Output, History, Variable=PRESELECT
*Output, Field, Variable=PRESELECT
*Element Output
SDV
*Boundary
*Amplitude, name=Amp-1
0., 0., 2.5e-05, 1.
*Boundary, amplitude=Amp-1
*** Constrain the nodes closest to the geometrical center of each yarns
363, 1, 1, 0
363, 2, 2, 0
363, 3, 3, 0
1491, 1, 1, 0
1491, 2, 2, 0
1491, 3, 3, 0
2574, 1, 1, 0
2574, 2, 2, 0
2574, 3, 3, 0
3154, 1, 1, 0
3154, 2, 2, 0
3154, 3, 3, 0
3734, 1, 1, 0
3734, 2, 2, 0
3734, 3, 3, 0
4314, 1, 1, 0
4314, 2, 2, 0
4314, 3, 3, 0
*** Apply the repeat vector constraints
Dummy0, 1, 1, 0
Dummy0, 2, 2, 0
Dummy0, 3, 3, 0
Dummy1, 1, 1, 0
Dummy1, 2, 2, 0
Dummy1, 3, 3, 0
*End Step
