*Heading
File generated by TexGen v3.12.0
************
*** MESH ***
************
*Node
1, -5.55112e-17, 0.707107, 0.5
2, 0.0707107, 0.777817, 0.5
3, 0.141421, 0.848528, 0.5
4, 0.212132, 0.919239, 0.5
5, 0.282843, 0.989949, 0.5
6, 0.353553, 1.06066, 0.5
7, 0.424264, 1.13137, 0.5
8, 0.494975, 1.20208, 0.5
9, 0.565685, 1.27279, 0.5
10, 0.636396, 1.3435, 0.5
11, 0.707107, 1.41421, 0.5
12, -0.0707107, 0.777817, 0.5
13, -6.93889e-17, 0.848528, 0.5
14, 0.0707107, 0.919239, 0.5
15, 0.141421, 0.989949, 0.5
16, 0.212132, 1.06066, 0.5
17, 0.282843, 1.13137, 0.5
18, 0.353553, 1.20208, 0.5
19, 0.424264, 1.27279, 0.5
20, 0.494975, 1.3435, 0.5
** ... 1311 like lines cut
*Element, Type=C3D8R
1, 2, 13, 12, 1, 123, 134, 133, 122
2, 3, 14, 13, 2, 124, 135, 134, 123
3, 4, 15, 14, 3, 125, 136, 135, 124
4, 5, 16, 15, 4, 126, 137, 136, 125
5, 6, 17, 16, 5, 127, 138, 137, 126
6, 7, 18, 17, 6, 128, 139, 138, 127
7, 8, 19, 18, 7, 129, 140, 139, 128
8, 9, 20, 19, 8, 130, 141, 140, 129
9, 10, 21, 20, 9, 131, 142, 141, 130
10, 11, 22, 21, 10, 132, 143, 142, 131
11, 13, 24, 23, 12, 134, 145, 144, 133
12, 14, 25, 24, 13, 135, 146, 145, 134
13, 15, 26, 25, 14, 136, 147, 146, 135
14, 16, 27, 26, 15, 137, 148, 147, 136
15, 17, 28, 27, 16, 138, 149, 148, 137
16, 18, 29, 28, 17, 139, 150, 149, 138
17, 19, 30, 29, 18, 140, 151, 150, 139
18, 20, 31, 30, 19, 141, 152, 151, 140
19, 21, 32, 31, 20, 142, 153, 152, 141
20, 22, 33, 32, 21, 143, 154, 153, 142
** ... 980 like lines cut
********************
*** ORIENTATIONS ***
********************
** Orientation vectors
** 1st vector represents the fibre direction
** 2nd vector is an arbitrary vector perpendicular to the first
*Distribution Table, Name=TexGenOrientationVectors
COORD3D,COORD3D
*Distribution, Location=Element, Table=TexGenOrientationVectors, Name=TexGenOrientationVectors, Input=RotatedVoxelMeshTest.ori
*Orientation, Name=TexGenOrientations, Definition=coordinates
TexGenOrientationVectors
1, 0
********************
*** ELEMENT SETS ***
********************
** TexGen generates a number of element sets:
** All - Contains all elements
** Matrix - Contains all elements belonging to the matrix
** YarnX - Where X represents the yarn index
*ElSet, ElSet=AllElements, Generate
1, 1000, 1
*ElSet, ElSet=Matrix
1, 2, 3, 4, 5, 6, 7, 8, 9, 10, 11, 12, 13, 14, 15, 16
17, 18, 19, 20, 21, 22, 23, 24, 25, 26, 27, 28, 29, 30, 71, 72
73, 74, 75, 76, 77, 78, 79, 80, 81, 82, 83, 84, 85, 86, 87, 88
89, 90, 91, 92, 93, 94, 95, 96, 97, 98, 99, 100, 101, 102, 103, 104
105, 106, 107, 108, 109, 110, 111, 112, 113, 114, 115, 116, 117, 118, 119, 120
181, 182, 183, 184, 185, 186, 187, 188, 189, 190, 191, 192, 193, 194, 195, 196
197, 198, 199, 200, 201, 202, 203, 204, 205, 206, 207, 208, 209, 210, 291, 292
293, 294, 295, 296, 297, 298, 299, 300, 701, 702, 703, 704, 705, 706, 707, 708
709, 710, 791, 792, 793, 794, 795, 796, 797, 798, 799, 800, 801, 802, 803, 804
805, 806, 807, 808, 809, 810, 811, 812, 813, 814, 815, 816, 817, 818, 819, 820
881, 882, 883, 884, 885, 886, 887, 888, 889, 890, 891, 892, 893, 894, 895, 896
897, 898, 899, 900, 901, 902, 903, 904, 905, 906, 907, 908, 909, 910, 911, 912
913, 914, 915, 916, 917, 918, 919, 920, 921, 922, 923, 924, 925, 926, 927, 928
929, 930, 971, 972, 973, 974, 975, 976, 977, 978, 979, 980, 981, 982, 983, 984
985, 986, 987, 988, 989, 990, 991, 992, 993, 994, 995, 996, 997, 998, 999, 1000
*ElSet, ElSet=Yarn0
31, 32, 33, 34, 35, 36, 37, 38, 39, 40, 41, 42, 43, 44, 45, 46
47, 48, 49, 50, 51, 52, 53, 54, 55, 56, 57, 58, 59, 60, 61, 62
63, 64, 65, 66, 67, 68, 69, 70, 121, 122, 123, 124, 125, 126, 127, 128
129, 130, 131, 132, 133, 134, 135, 136, 137, 138, 139, 140, 141, 142, 143, 144
145, 146, 147, 148, 149, 150, 151, 152, 153, 154, 155, 156, 157, 158, 159, 160
161, 162, 163, 164, 165, 166, 167, 168, 169, 170, 171, 172, 173, 174, 175, 176
177, 178, 179, 180, 211, 212, 213, 214, 215, 216, 217, 218, 219, 220, 221, 222
223, 224, 225, 226, 227, 228, 229, 230, 231, 232, 233, 234, 235, 236, 237, 238
239, 240, 241, 242, 243, 244, 245, 246, 247, 248, 249, 250, 251, 252, 253, 254
255, 256, 257, 258, 259, 260, 261, 262, 263, 264, 265, 266, 267, 268, 269, 270
271, 272, 273, 274, 275, 276, 277, 278, 279, 280, 281, 282, 283, 284, 285, 286
287, 288, 289, 290, 301, 302, 303, 304, 305, 306, 307, 308, 309, 310, 311, 312
313, 314, 315, 316, 317, 318, 319, 320, 321, 322, 323, 324, 325, 326, 327, 328
329, 330, 331, 332, 333, 334, 335, 336, 337, 338, 339, 340, 341, 342, 343, 344
345, 346, 347, 348, 349, 350, 351, 352, 353, 354, 355, 356, 357, 358, 359, 360
361, 362, 363, 364, 365, 366, 367, 368, 369, 370, 371, 372, 373, 374, 375, 376
377, 378, 379, 380, 381, 382, 383, 384, 385, 386, 387, 388, 389, 390, 391, 392
393, 394, 395, 396, 397, 398, 399, 400, 401, 402, 403, 404, 405, 406, 407, 408
409, 410, 411, 412, 413, 414, 415, 416, 417, 418, 419, 420, 421, 422, 423, 424
425, 426, 427, 428, 429, 430, 431, 432, 433, 434, 435, 436, 437, 438, 439, 440
** ... 28 like lines cut
*****************
*** NODE SETS ***
*****************
** AllNodes - Node set containing all elements
*NSet, NSet=AllNodes, Generate
1, 1331, 1
*****************
*** MATERIALS ***
*****************
*Material, Name=Mat0
*Elastic
3e+09, 0.2
*Expansion
6.5e-06
*Material, Name=Mat1
*Elastic, type=ENGINEERING CONSTANTS
2e+11, 1e+10, 1e+10, 0.3, 0.4, 0.4, 5e+09, 5e+09
5e+09
*Expansion, type=ORTHO
-2e-07, 3e-06, 3e-06
*Solid Section, ElSet=Matrix, Material=Mat0
1.0,
*Solid Section, ElSet=Yarn0, Material=Mat1, Orientation=TexGenOrientations
1.0,
************************************
*** PERIODIC BOUNDARY CONDITIONS ***
************************************
*** ConstraintsDriver0 = e_x
*** ConstraintsDriver1 = e_y
*** ConstraintsDriver2 = e_z
*** ConstraintsDriver3 = e_xy
*** ConstraintsDriver4 = e_xz
*** ConstraintsDriver5 = e_yz
*Node
1332, 0, 0, 0
*NSet, NSet=ConstraintsDriver0
1332
*Node
1333, 0, 0, 0
*NSet, NSet=ConstraintsDriver1
1333
*Node
1334, 0, 0, 0
*NSet, NSet=ConstraintsDriver2
1334
*Node
1335, 0, 0, 0
*NSet, NSet=ConstraintsDriver3
1335
*Node
1336, 0, 0, 0
*NSet, NSet=ConstraintsDriver4
1336
*Node
1337, 0, 0, 0
*NSet, NSet=ConstraintsDriver5
1337
*NSet, NSet=FaceA, Unsorted
143, 154, 165, 176, 187, 198, 209, 220, 231, 264, 275, 286, 297, 308, 319, 330
341, 352, 385, 396, 407, 418, 429, 440, 451, 462, 473, 506, 517, 528, 539, 550
561, 572, 583, 594, 627, 638, 649, 660, 671, 682, 693, 704, 715, 748, 759, 770
781, 792, 803, 814, 825, 836, 869, 880, 891, 902, 913, 924, 935, 946, 957, 990
1001, 1012, 1023, 1034, 1045, 1056, 1067, 1078, 1111, 1122, 1133, 1144, 1155, 1166, 1177, 1188
1199
*NSet, NSet=FaceB, Unsorted
133, 144, 155, 166, 177, 188, 199, 210, 221, 254, 265, 276, 287, 298, 309, 320
331, 342, 375, 386, 397, 408, 419, 430, 441, 452, 463, 496, 507, 518, 529, 540
551, 562, 573, 584, 617, 628, 639, 650, 661, 672, 683, 694, 705, 738, 749, 760
771, 782, 793, 804, 815, 826, 859, 870, 881, 892, 903, 914, 925, 936, 947, 980
991, 1002, 1013, 1024, 1035, 1046, 1057, 1068, 1101, 1112, 1123, 1134, 1145, 1156, 1167, 1178
1189
*NSet, NSet=FaceC, Unsorted
233, 234, 235, 236, 237, 238, 239, 240, 241, 354, 355, 356, 357, 358, 359, 360
361, 362, 475, 476, 477, 478, 479, 480, 481, 482, 483, 596, 597, 598, 599, 600
601, 602, 603, 604, 717, 718, 719, 720, 721, 722, 723, 724, 725, 838, 839, 840
841, 842, 843, 844, 845, 846, 959, 960, 961, 962, 963, 964, 965, 966, 967, 1080
1081, 1082, 1083, 1084, 1085, 1086, 1087, 1088, 1201, 1202, 1203, 1204, 1205, 1206, 1207, 1208
1209
*NSet, NSet=FaceD, Unsorted
123, 124, 125, 126, 127, 128, 129, 130, 131, 244, 245, 246, 247, 248, 249, 250
251, 252, 365, 366, 367, 368, 369, 370, 371, 372, 373, 486, 487, 488, 489, 490
491, 492, 493, 494, 607, 608, 609, 610, 611, 612, 613, 614, 615, 728, 729, 730
731, 732, 733, 734, 735, 736, 849, 850, 851, 852, 853, 854, 855, 856, 857, 970
971, 972, 973, 974, 975, 976, 977, 978, 1091, 1092, 1093, 1094, 1095, 1096, 1097, 1098
1099
*NSet, NSet=FaceE, Unsorted
1223, 1224, 1225, 1226, 1227, 1228, 1229, 1230, 1231, 1234, 1235, 1236, 1237, 1238, 1239, 1240
1241, 1242, 1245, 1246, 1247, 1248, 1249, 1250, 1251, 1252, 1253, 1256, 1257, 1258, 1259, 1260
1261, 1262, 1263, 1264, 1267, 1268, 1269, 1270, 1271, 1272, 1273, 1274, 1275, 1278, 1279, 1280
1281, 1282, 1283, 1284, 1285, 1286, 1289, 1290, 1291, 1292, 1293, 1294, 1295, 1296, 1297, 1300
1301, 1302, 1303, 1304, 1305, 1306, 1307, 1308, 1311, 1312, 1313, 1314, 1315, 1316, 1317, 1318
1319
*NSet, NSet=FaceF, Unsorted
13, 14, 15, 16, 17, 18, 19, 20, 21, 24, 25, 26, 27, 28, 29, 30
31, 32, 35, 36, 37, 38, 39, 40, 41, 42, 43, 46, 47, 48, 49, 50
51, 52, 53, 54, 57, 58, 59, 60, 61, 62, 63, 64, 65, 68, 69, 70
71, 72, 73, 74, 75, 76, 79, 80, 81, 82, 83, 84, 85, 86, 87, 90
91, 92, 93, 94, 95, 96, 97, 98, 101, 102, 103, 104, 105, 106, 107, 108
109
*NSet, NSet=Edge1, Unsorted
122, 243, 364, 485, 606, 727, 848, 969, 1090
*NSet, NSet=Edge2, Unsorted
132, 253, 374, 495, 616, 737, 858, 979, 1100
*NSet, NSet=Edge3, Unsorted
242, 363, 484, 605, 726, 847, 968, 1089, 1210
*NSet, NSet=Edge4, Unsorted
232, 353, 474, 595, 716, 837, 958, 1079, 1200
*NSet, NSet=Edge5, Unsorted
12, 23, 34, 45, 56, 67, 78, 89, 100
*NSet, NSet=Edge6, Unsorted
22, 33, 44, 55, 66, 77, 88, 99, 110
*NSet, NSet=Edge7, Unsorted
1232, 1243, 1254, 1265, 1276, 1287, 1298, 1309, 1320
*NSet, NSet=Edge8, Unsorted
1222, 1233, 1244, 1255, 1266, 1277, 1288, 1299, 1310
*NSet, NSet=Edge9, Unsorted
2, 3, 4, 5, 6, 7, 8, 9, 10
*NSet, NSet=Edge10, Unsorted
112, 113, 114, 115, 116, 117, 118, 119, 120
*NSet, NSet=Edge11, Unsorted
1322, 1323, 1324, 1325, 1326, 1327, 1328, 1329, 1330
*NSet, NSet=Edge12, Unsorted
1212, 1213, 1214, 1215, 1216, 1217, 1218, 1219, 1220
*NSet, NSet=MasterNode1, Unsorted
1
*NSet, NSet=MasterNode2, Unsorted
11
*NSet, NSet=MasterNode3, Unsorted
121
*NSet, NSet=MasterNode4, Unsorted
111
*NSet, NSet=MasterNode5, Unsorted
1211
*NSet, NSet=MasterNode6, Unsorted
1221
*NSet, NSet=MasterNode7, Unsorted
1331
*NSet, NSet=MasterNode8, Unsorted
1321
***************************
*** BOUNDARY CONDITIONS ***
***************************
*** Name: Translation stop Vertex 1 Type: Displacement/Rotation
*Boundary
MasterNode1, 1, 1
MasterNode1, 2, 2
MasterNode1, 3, 3

*****************
*** EQUATIONS ***
*****************
*parameter
***unit cell X axis displacements
xx=-0.707107
xy=-0.707107
xz=-0
***Unit cell Y axis displacements
yx=0.707107
yy=-0.707107
yz=-0
***Unit cell Z axis displacements
zx=-0
zy=-0
zz=-1
*Equation
5
FaceA, 1, 1.0, FaceB, 1, -1.0, ConstraintsDriver0, 1, <xx>
ConstraintsDriver3, 1, <xy>, ConstraintsDriver4, 1, <xz>
*Equation
4
FaceA, 2, 1.0, FaceB, 2, -1.0
ConstraintsDriver1, 1, <xy>, ConstraintsDriver5, 1, <xz>
*Equation
3
FaceA, 3, 1.0, FaceB, 3, -1.0
ConstraintsDriver2, 1, <xz>
*Equation
5
FaceC, 1, 1.0, FaceD, 1, -1.0, ConstraintsDriver0, 1, <yx>
ConstraintsDriver3, 1, <yy>, ConstraintsDriver4, 1, <yz>
*Equation
4
FaceC, 2, 1.0, FaceD, 2, -1.0
ConstraintsDriver1, 1, <yy>, ConstraintsDriver5, 1, <yz>
*Equation
3
FaceC, 3, 1.0, FaceD, 3, -1.0
ConstraintsDriver2, 1, <yz>
*Equation
5
FaceE, 1, 1.0, FaceF, 1, -1.0, ConstraintsDriver0, 1, <zx>
ConstraintsDriver3, 1, <zy>, ConstraintsDriver4, 1, <zz>
*Equation
4
FaceE, 2, 1.0, FaceF, 2, -1.0
ConstraintsDriver1, 1, <zy>, ConstraintsDriver5, 1, <zz>
*Equation
3
FaceE, 3, 1.0, FaceF, 3, -1.0
ConstraintsDriver2, 1, <zz>
************************************************
*** There seems to be an issue with using parameterised variables for repeated constraints 
*** ABAQUS should be able to combine these but it generates a system error, reported in the .dat file 
*** Only solution for this found is to add the values before exporting to the .inp file 
*** Comments in following sections show which parameters have been added 
*Equation
5
Edge2, 1, 1.0, Edge1, 1, -1.0, ConstraintsDriver0, 1, <xx>, ConstraintsDriver3, 1, <xy>
ConstraintsDriver4, 1, <xz>
*Equation
4
Edge2, 2, 1.0, Edge1, 2, -1.0, ConstraintsDriver1, 1, <xy>, ConstraintsDriver5, 1, <xz>
*Equation
3
Edge2, 3, 1.0, Edge1, 3, -1.0, ConstraintsDriver2, 1, <xz>
*** ConstraintsDriver0 <xx> + <yx>
*** ConstraintsDriver3 <xy> + <yy>
*** ConstraintsDriver4 <xz> + <yz>
*Equation
5
Edge3, 1, 1.0, Edge1, 1, -1.0, ConstraintsDriver0, 1, 2.22045e-16, ConstraintsDriver3, 1, -1.41421
ConstraintsDriver4, 1, -0
*** ConstraintsDriver1 <xy> + <yy>
*** ConstraintsDriver5 <xz> + <yz>
*Equation
4
Edge3, 2, 1.0, Edge1, 2, -1.0, ConstraintsDriver1, 1, -1.41421, ConstraintsDriver5, 1, -0
*Equation
3
Edge3, 3, 1.0, Edge1, 3, -1.0, ConstraintsDriver2, 1, -0
*Equation
5
Edge4, 1, 1.0, Edge1, 1, -1.0, ConstraintsDriver0, 1, <yx>, ConstraintsDriver3, 1, <yy>
ConstraintsDriver4, 1, <yz>
*Equation
4
Edge4, 2, 1.0, Edge1, 2, -1.0, ConstraintsDriver1, 1, <yy>, ConstraintsDriver5, 1, <yz>
*Equation
3
Edge4, 3, 1.0, Edge1, 3, -1.0, ConstraintsDriver2, 1, <yz>
*Equation
5
Edge6, 1, 1.0, Edge5, 1, -1.0, ConstraintsDriver0, 1, <xx>
ConstraintsDriver3, 1, <xy>, ConstraintsDriver4, 1, <xz>
*Equation
4
Edge6, 2, 1.0, Edge5, 2, -1.0
ConstraintsDriver1, 1, <xy>, ConstraintsDriver5, 1, <xz>
*Equation
3
Edge6, 3, 1.0, Edge5, 3, -1.0
ConstraintsDriver2, 1, <xz>
*** ConstraintsDriver0 <xx> + <zx>
*** ConstraintsDriver3 <xy> + <zy>
*** ConstraintsDriver4 <xz> + <zz>
*Equation
5
Edge7, 1, 1.0, Edge5, 1, -1.0, ConstraintsDriver0, 1, -0.707107
ConstraintsDriver3, 1, -0.707107, ConstraintsDriver4, 1, -1
*** ConstraintsDriver1 <xy> + <zy>
*** ConstraintsDriver5 <xz> + <zz>
*Equation
4
Edge7, 2, 1.0, Edge5, 2, -1.0
ConstraintsDriver1, 1, -0.707107, ConstraintsDriver5, 1, -1
*Equation
3
Edge7, 3, 1.0, Edge5, 3, -1.0
ConstraintsDriver2, 1, -1
*Equation
5
Edge8, 1, 1.0, Edge5, 1, -1.0, ConstraintsDriver0, 1, <zx>
ConstraintsDriver3, 1, <zy>, ConstraintsDriver4, 1, <zz>
*Equation
4
Edge8, 2, 1.0, Edge5, 2, -1.0
ConstraintsDriver1, 1, <zy>, ConstraintsDriver5, 1, <zz>
*Equation
3
Edge8, 3, 1.0, Edge5, 3, -1.0
ConstraintsDriver2, 1, <zz>
*Equation
5
Edge10, 1, 1.0, Edge9, 1, -1.0, ConstraintsDriver0, 1, <yx>
ConstraintsDriver3, 1, <yy>, ConstraintsDriver4, 1, <yz>
*Equation
4
Edge10, 2, 1.0, Edge9, 2, -1.0
ConstraintsDriver1, 1, <yy>, ConstraintsDriver5, 1, <yz>
*Equation
3
Edge10, 3, 1.0, Edge9, 3, -1.0
ConstraintsDriver2, 1, <yz>
*** ConstraintsDriver0 <yx> + <zx>
*** ConstraintsDriver3 <yy> + <zy>
*** ConstraintsDriver4 <yz> + <zz>
*Equation
5
Edge11, 1, 1.0, Edge9, 1, -1.0, ConstraintsDriver0, 1, 0.707107
ConstraintsDriver3, 1, -0.707107, ConstraintsDriver4, 1, -1
*** ConstraintsDriver1 <yy> + <zy>
*** ConstraintsDriver5 <yz> + <zz>
*Equation
4
Edge11, 2, 1.0, Edge9, 2, -1.0
ConstraintsDriver1, 1, -0.707107, ConstraintsDriver5, 1, -1
*Equation
3
Edge11, 3, 1.0, Edge9, 3, -1.0
ConstraintsDriver2, 1, -1
*Equation
5
Edge12, 1, 1.0, Edge9, 1, -1.0, ConstraintsDriver0, 1, <zx>
ConstraintsDriver3, 1, <zy>, ConstraintsDriver4, 1, <zz>
*Equation
4
Edge12, 2, 1.0, Edge9, 2, -1.0
ConstraintsDriver1, 1, <zy>, ConstraintsDriver5, 1, <zz>
*Equation
3
Edge12, 3, 1.0, Edge9, 3, -1.0
ConstraintsDriver2, 1, <zz>
******************************************************
*Equation
5
MasterNode2, 1, 1.0, MasterNode1, 1, -1.0, ConstraintsDriver0, 1, <xx>, ConstraintsDriver3, 1, <xy>
ConstraintsDriver4, 1, <xz>
*Equation
4
MasterNode2, 2, 1.0, MasterNode1, 2, -1.0, ConstraintsDriver1, 1, <xy>, ConstraintsDriver5, 1, <xz>
*Equation
3
MasterNode2, 3, 1.0, MasterNode1, 3, -1.0, ConstraintsDriver2, 1, <xz>
*** ConstraintsDriver0 <xx> + <yx>
*** ConstraintsDriver3 <xy> + <yy>
*** ConstraintsDriver4 <xz> + <yz>
*Equation
5
MasterNode3, 1, 1.0, MasterNode1, 1, -1.0, ConstraintsDriver0, 1, 2.22045e-16, ConstraintsDriver3, 1, -1.41421
ConstraintsDriver4, 1, -0
*Equation
4
MasterNode3, 2, 1.0, MasterNode1, 2, -1.0, ConstraintsDriver1, 1, -1.41421, ConstraintsDriver5, 1, -0
*Equation
4
MasterNode3, 3, 1.0, MasterNode1, 3, -1.0, ConstraintsDriver2, 1, <xz>
ConstraintsDriver2, 1, <yz>
*Equation
5
MasterNode4, 1, 1.0, MasterNode1, 1, -1.0, ConstraintsDriver0, 1, <yx>, ConstraintsDriver3, 1, <yy>
ConstraintsDriver4, 1, <yz>
*Equation
4
MasterNode4, 2, 1.0, MasterNode1, 2, -1.0, ConstraintsDriver1, 1, <yy>, ConstraintsDriver5, 1, <yz>
*Equation
3
MasterNode4, 3, 1.0, MasterNode1, 3, -1.0, ConstraintsDriver2, 1, <yz>
*Equation
5
MasterNode5, 1, 1.0, MasterNode1, 1, -1.0, ConstraintsDriver0, 1, <zx>
ConstraintsDriver3, 1, <zy>, ConstraintsDriver4, 1, <zz>
*Equation
4
MasterNode5, 2, 1.0, MasterNode1, 2, -1.0
ConstraintsDriver1, 1, <zy>, ConstraintsDriver5, 1, <zz>
*Equation
3
MasterNode5, 3, 1.0, MasterNode1, 3, -1.0
ConstraintsDriver2, 1, <zz>
*** ConstraintsDriver0 <xx> + <zx>
*** ConstraintsDriver3 <xy> + <zy>
*** ConstraintsDriver4 <xz> + <zz>
*Equation
5
MasterNode6, 1, 1.0, MasterNode1, 1, -1.0, ConstraintsDriver0, 1, -0.707107
ConstraintsDriver3, 1, -0.707107, ConstraintsDriver4, 1, -1
*** ConstraintsDriver1 <xy> + <zy>
*** ConstraintsDriver5 <xz> + <zz>
*Equation
4
MasterNode6, 2, 1.0, MasterNode1, 2, -1.0
ConstraintsDriver1, 1, -0.707107, ConstraintsDriver5, 1, -1
*** ConstraintsDriver2 <xz> + <zz>
*Equation
3
MasterNode6, 3, 1.0, MasterNode1, 3, -1.0
ConstraintsDriver2, 1, -1
*** ConstraintsDriver0 <xx> + <yx> +<zx>
*** ConstraintsDriver3 <xy> + <yy> + <zy>
*** ConstraintsDriver4 <xz> + <yz> + <zz>
*Equation
5
MasterNode7, 1, 1.0, MasterNode1, 1, -1.0, ConstraintsDriver0, 1, 2.22045e-16 , ConstraintsDriver3, 1, -1.41421
ConstraintsDriver4, 1, -1
*** ConstraintsDriver1 <xy> + <yy> + <zy>
*** ConstraintsDriver5 <xz> + <yz> + <zz>
*Equation
4
MasterNode7, 2, 1.0, MasterNode1, 2, -1.0, ConstraintsDriver1, 1, -1.41421, ConstraintsDriver5, 1, -1
*** ConstraintsDriver2 <xz> + <yz> + <zz>
*Equation
3
MasterNode7, 3, 1.0, MasterNode1, 3, -1.0, ConstraintsDriver2, 1, -1
*** ConstraintsDriver0 <yx> + <zx>
*** ConstraintsDriver3 <yy> + <zy>
*** ConstraintsDriver4 <yz> + <zz>
*Equation
5
MasterNode8, 1, 1.0, MasterNode1, 1, -1.0, ConstraintsDriver0, 1, 0.707107
ConstraintsDriver3, 1, -0.707107, ConstraintsDriver4, 1, -1
*** ConstraintsDriver1 <yy> + <zy>
*** ConstraintsDriver5 <yz> + <zz>
*Equation
4
MasterNode8, 2, 1.0, MasterNode1, 2, -1.0
ConstraintsDriver1, 1, -0.707107 , ConstraintsDriver5, 1, -1
*** ConstraintsDriver2 <yz> + <zz>
*Equation
3
MasterNode8, 3, 1.0, MasterNode1, 3, -1.0
ConstraintsDriver2, 1, -1
*******************
*** CREATE STEP ***
*******************
*** PREDEFINED FIELDS ***
*** Name: Initial temperature 0C all cells   Type: Temperature ***
*Initial Conditions, type=TEMPERATURE
AllNodes, 0.

*Step, Name=Isothermal linear perturbation step, perturbation
Elastic material property computation
*Static

***********************
*** OUTPUT REQUESTS ***
***********************
*Output, field
*Element Output, directions=YES
S,
*** FIELD OUTPUT: Output Request Fx ***
*Node Output, nset=ConstraintsDriver0
U,
*** FIELD OUTPUT: Output Request Fy ***
*Node Output, nset=ConstraintsDriver1
U,
*** FIELD OUTPUT: Ouput Request Fz ***
*Node Output, nset=ConstraintsDriver2
U,
*** FIELD OUTPUT: Output Request Shear_xy ***
*Node Output, nset=ConstraintsDriver3
U,
*** FIELD OUTPUT: Output Request Shear_zx ***
*Node Output, nset=ConstraintsDriver4
U,
*** FIELD OUTPUT: Output Request Shear_yz ***
*Node Output, nset=ConstraintsDriver5
U,

******************
*** LOAD CASES ***
******************
*Load Case, name=Load0
*Boundary, op=NEW
MasterNode1, 1, 1
MasterNode1, 2, 2
MasterNode1, 3, 3
*Cload
ConstraintsDriver0, 1, 1
*End Load Case

*Load Case, name=Load1
*Boundary, op=NEW
MasterNode1, 1, 1
MasterNode1, 2, 2
MasterNode1, 3, 3
*Cload
ConstraintsDriver1, 1, 1
*End Load Case

*Load Case, name=Load2
*Boundary, op=NEW
MasterNode1, 1, 1
MasterNode1, 2, 2
MasterNode1, 3, 3
*Cload
ConstraintsDriver2, 1, 1
*End Load Case

*Load Case, name=Load3
*Boundary, op=NEW
MasterNode1, 1, 1
MasterNode1, 2, 2
MasterNode1, 3, 3
*Cload
ConstraintsDriver3, 1, 1
*End Load Case

*Load Case, name=Load4
*Boundary, op=NEW
MasterNode1, 1, 1
MasterNode1, 2, 2
MasterNode1, 3, 3
*Cload
ConstraintsDriver4, 1, 1
*End Load Case

*Load Case, name=Load5
*Boundary, op=NEW
MasterNode1, 1, 1
MasterNode1, 2, 2
MasterNode1, 3, 3
*Cload
ConstraintsDriver5, 1, 1
*End Load Case


*End Step

*** STEP: Thermomechanical step ***
*Step, name=Thermomechanical step, perturbation
Coefficient of Thermal Expansion computation
*Static
*** PREDEFINED FIELDS ***
*** Name: Temperature steady 1C all cells   Type: Temperature ***
*Temperature
AllNodes, 1.
***********************
*** OUTPUT REQUESTS ***
***********************
*Output, field
*Element Output, directions=YES
S,
*** FIELD OUTPUT: Output Request Fx ***
*Node Output, nset=ConstraintsDriver0
U,
*** FIELD OUTPUT: Output Request Fy ***
*Node Output, nset=ConstraintsDriver1
U,
*** FIELD OUTPUT: Output Request Fz ***
*Node Output, nset=ConstraintsDriver2
U,
*End Step
