*Heading
File generated by TexGen v3.12.0
************
*** MESH ***
************
*Node
1, -0.161331, 0.149963, -0.015
2, -0.161331, 0.149963, 0.0174074
3, -0.161331, 0.149963, 0.0498147
4, -0.161331, 0.149963, 0.0822221
5, -0.161331, 0.149963, 0.114629
6, -0.161331, 0.149963, 0.147037
7, -0.161331, 0.149963, 0.180629
8, -0.161331, 0.149963, 0.214222
9, -0.161331, 0.149963, 0.247815
10, -0.161331, 0.149963, 0.281407
11, -0.161331, 0.149963, 0.315
12, -5.55112e-16, 0.148078, -0.015
13, -5.55112e-16, 0.148078, 0.0288423
14, -5.55112e-16, 0.148078, 0.0726846
15, -5.55112e-16, 0.148078, 0.118822
16, -5.55112e-16, 0.148078, 0.164959
17, -5.55112e-16, 0.148078, 0.211097
18, -5.55112e-16, 0.148078, 0.257234
19, -5.55112e-16, 0.148078, 0.315
20, 0.161331, 0.149963, -0.015
** ... 2922 like lines cut
*Element, Type=C3D4
1, 2338, 1197, 454, 2339
2, 2339, 1197, 454, 1198
3, 2339, 1198, 454, 455
4, 2339, 1198, 455, 2340
5, 2340, 1198, 455, 1199
6, 2340, 1199, 455, 456
7, 2340, 1199, 456, 457
8, 2340, 1199, 457, 2341
9, 2341, 1199, 457, 1200
10, 2341, 1200, 457, 2342
11, 2342, 1200, 457, 1201
12, 2342, 1201, 457, 2343
13, 2343, 1201, 457, 458
14, 2343, 1201, 458, 2344
15, 2344, 1201, 458, 1202
16, 2344, 1202, 458, 1203
17, 2344, 1203, 458, 459
18, 2344, 1203, 459, 2345
19, 2345, 1203, 459, 460
20, 2345, 1203, 460, 1204
** ... 13766 like lines cut
********************
*** ORIENTATIONS ***
********************
** Orientation vectors
** 1st vector represents the fibre direction
** 2nd vector is an arbitrary vector perpendicular to the first
*Distribution Table, Name=TexGenOrientationVectors
COORD3D,COORD3D
*Distribution, Location=Element, Table=TexGenOrientationVectors, Name=TexGenOrientationVectors, Input=vmesh.ori
*Orientation, Name=TexGenOrientations, Definition=coordinates
TexGenOrientationVectors
1, 0
********************
*** ELEMENT SETS ***
********************
** TexGen generates a number of element sets:
** All - Contains all elements
** Matrix - Contains all elements belonging to the matrix
** YarnX - Where X represents the yarn index
*ElSet, ElSet=All, Generate
1, 13786, 1
*ElSet, ElSet=Matrix
1, 2, 3, 4, 5, 6, 7, 13, 14, 17, 18, 19, 20, 21, 22, 23
24, 25, 26, 27, 28, 29, 30, 31, 32, 33, 34, 35, 36, 37, 38, 39
40, 41, 42, 43, 44, 45, 46, 47, 48, 49, 50, 51, 52, 53, 54, 55
56, 57, 58, 61, 62, 63, 64, 65, 66, 67, 68, 69, 70, 71, 72, 73
74, 75, 76, 89, 90, 91, 92, 93, 94, 95, 96, 97, 98, 99, 107, 108
109, 110, 111, 112, 113, 114, 115, 116, 117, 118, 119, 120, 121, 122, 123, 124
125, 126, 127, 128, 129, 130, 131, 132, 133, 134, 135, 136, 137, 138, 139, 140
141, 142, 143, 144, 145, 146, 147, 150, 151, 152, 153, 154, 155, 156, 157, 158
159, 160, 161, 162, 163, 174, 175, 176, 177, 178, 179, 180, 181, 182, 183, 184
187, 188, 199, 200, 201, 202, 203, 204, 205, 206, 207, 216, 221, 222, 223, 224
225, 226, 227, 228, 229, 230, 235, 236, 242, 243, 244, 245, 246, 247, 248, 249
263, 264, 265, 266, 267, 268, 269, 270, 271, 272, 273, 274, 275, 276, 277, 278
281, 282, 283, 284, 285, 286, 287, 288, 289, 290, 291, 292, 293, 294, 295, 296
297, 298, 299, 305, 306, 307, 308, 309, 310, 311, 312, 313, 314, 315, 316, 317
318, 319, 320, 321, 322, 323, 324, 325, 326, 327, 328, 329, 330, 331, 332, 333
334, 335, 336, 337, 338, 339, 340, 341, 342, 343, 344, 345, 346, 347, 348, 349
350, 351, 352, 353, 354, 355, 356, 357, 358, 359, 360, 361, 362, 363, 364, 365
368, 369, 370, 371, 372, 373, 374, 375, 376, 377, 378, 379, 380, 381, 382, 383
384, 385, 386, 387, 388, 389, 390, 391, 392, 393, 394, 395, 396, 397, 398, 399
400, 401, 402, 403, 404, 405, 406, 407, 408, 409, 410, 411, 412, 413, 414, 415
** ... 408 like lines cut
*ElSet, ElSet=Yarn0
15, 16, 59, 60, 100, 101, 102, 103, 104, 105, 106, 164, 165, 166, 167, 168
169, 170, 171, 172, 173, 185, 186, 250, 251, 252, 253, 254, 255, 256, 257, 258
259, 260, 261, 262, 279, 280, 366, 367, 439, 440, 441, 442, 443, 444, 445, 446
447, 484, 485, 486, 487, 488, 489, 490, 491, 492, 493, 494, 495, 552, 553, 554
555, 578, 579, 580, 581, 664, 665, 666, 667, 668, 669, 670, 671, 672, 750, 751
752, 753, 754, 755, 756, 757, 758, 775, 776, 777, 778, 791, 792, 793, 794, 795
796, 797, 798, 799, 800, 801, 841, 842, 843, 844, 845, 846, 859, 860, 861, 862
863, 864, 865, 913, 914, 962, 963, 964, 965, 966, 967, 968, 969, 970, 1037, 1038
1039, 1040, 1041, 1042, 1043, 1044, 1045, 1046, 1047, 1048, 1081, 1082, 1083, 1084, 1085, 1086
1087, 1196, 1197, 1198, 1199, 1200, 1579, 1580, 1876, 1877, 1878, 1879, 1880, 1881, 1882, 1883
1884, 1885, 1886, 1972, 1973, 1974, 1975, 2241, 2242, 2243, 2244, 2245, 2246, 2277, 2278, 2279
2280, 2281, 2282, 2396, 2397, 2398, 2399, 2400, 2401, 2402, 2411, 2412, 2413, 2414, 2415, 2416
2417, 2428, 2429, 2430, 2431, 2432, 2433, 2434, 2435, 2436, 2437, 2438, 2463, 2464, 2522, 2523
2524, 2525, 2526, 2527, 2528, 2540, 2541, 2542, 2543, 2544, 2545, 2562, 2563, 2564, 2565, 2566
2567, 2568, 2621, 2622, 2690, 2691, 2692, 2693, 2709, 2710, 2711, 2712, 2713, 2714, 2715, 2716
2717, 2718, 2824, 2825, 2899, 2900, 2921, 2922, 2923, 2924, 2925, 2926, 2927, 2963, 2964, 2965
2966, 2967, 2968, 2969, 3007, 3008, 3009, 3010, 3030, 3031, 3049, 3050, 3051, 3052, 3053, 3054
3055, 3120, 3121, 3122, 3123, 3124, 3125, 3126, 3127, 3128, 3257, 3258, 3333, 3334, 3335, 3345
3346, 3347, 3348, 3349, 3350, 3351, 3352, 3353, 3354, 3355, 3356, 3367, 3368, 3369, 3370, 3818
3819, 3820, 3821, 3822, 3823, 3824, 3825, 3826, 3827, 3828, 3868, 3869, 3972, 3973, 3974, 3975
** ... 93 like lines cut
*ElSet, ElSet=Yarn1
208, 209, 210, 211, 212, 213, 214, 215, 231, 232, 233, 234, 505, 506, 507, 508
509, 510, 638, 639, 640, 641, 642, 643, 644, 645, 646, 647, 648, 708, 709, 710
711, 712, 713, 714, 715, 716, 1154, 1155, 1172, 1173, 1174, 1175, 1176, 1177, 1178, 1212
1213, 1214, 1215, 1216, 1217, 1218, 1219, 1220, 1221, 1277, 1278, 1279, 1280, 1281, 1282, 1283
1284, 1285, 1286, 1287, 1288, 1374, 1375, 1401, 1402, 1420, 1421, 1422, 1423, 1424, 1425, 1426
1427, 1428, 1429, 1560, 1561, 1562, 1563, 1564, 1565, 1566, 1567, 1568, 1604, 1605, 1606, 1607
1608, 1609, 1610, 1611, 1612, 1613, 1614, 1627, 1628, 1629, 1630, 1631, 1632, 1633, 1634, 1635
1636, 1648, 1649, 1650, 1651, 1652, 1653, 1654, 1655, 1656, 1670, 1671, 1672, 1673, 1695, 1696
1697, 1698, 1740, 1741, 1761, 1762, 1763, 1764, 1765, 1766, 1767, 1768, 1769, 1770, 1809, 1810
1811, 1812, 1813, 1814, 1815, 1816, 1817, 2096, 2097, 2098, 2099, 2138, 2139, 2140, 2141, 2142
2143, 2144, 2145, 2146, 2147, 2148, 2217, 2218, 2219, 2220, 2221, 2222, 2223, 2224, 2328, 2329
2330, 2331, 2332, 2333, 2334, 2335, 2336, 2337, 2338, 2351, 2352, 2353, 2354, 2483, 2484, 3152
3153, 3207, 3208, 3209, 3210, 3211, 3212, 3302, 3303, 3304, 3410, 3411, 3412, 3413, 3414, 3415
3416, 3417, 3418, 3419, 3420, 3461, 3462, 3481, 3482, 3503, 3504, 3505, 3506, 3507, 3508, 3525
3526, 3693, 3694, 3695, 3696, 3697, 3698, 3699, 3739, 3740, 3741, 3742, 3743, 3744, 3745, 3934
3935, 3949, 3950, 3951, 3952, 3953, 3954, 3955, 3956, 3957, 3958, 3959, 3995, 3996, 3997, 3998
3999, 4000, 4001, 4016, 4017, 4018, 4019, 4081, 4082, 4083, 4084, 4085, 4086, 4087, 4124, 4125
4126, 4127, 4249, 4250, 4277, 4278, 4415, 4416, 4417, 4418, 4419, 4420, 4421, 4422, 4423, 4479
4480, 4481, 4482, 4483, 4484, 4485, 4486, 4487, 4488, 4489, 4490, 4605, 4606, 4607, 4608, 4609
4610, 4611, 4627, 4628, 4629, 4630, 4631, 4632, 4633, 4634, 4645, 4646, 4647, 4648, 4649, 4650
** ... 90 like lines cut
*ElSet, ElSet=Yarn2
148, 149, 189, 190, 191, 192, 193, 194, 195, 196, 197, 198, 421, 422, 423, 424
425, 531, 532, 533, 534, 535, 536, 537, 538, 539, 540, 541, 542, 556, 557, 558
559, 560, 561, 562, 563, 564, 565, 566, 567, 584, 585, 599, 600, 601, 602, 603
604, 605, 606, 607, 622, 623, 624, 625, 626, 690, 691, 733, 734, 735, 736, 737
761, 762, 803, 804, 815, 816, 817, 818, 819, 820, 821, 822, 823, 824, 866, 867
868, 869, 870, 871, 872, 873, 887, 888, 972, 973, 974, 975, 1058, 1059, 1060, 1061
1062, 1063, 1064, 1065, 1066, 1067, 1257, 1258, 1259, 1260, 1261, 1325, 1326, 1327, 1328, 1329
1330, 1331, 1332, 1333, 1536, 1537, 1538, 1539, 1540, 1541, 1542, 1543, 1544, 1545, 1546, 1582
1583, 1584, 1585, 1586, 1587, 1588, 1589, 1590, 1591, 1592, 1593, 1620, 1621, 1622, 1623, 1624
1625, 1626, 1644, 1645, 1684, 1685, 1686, 1687, 1688, 1689, 1690, 1691, 1692, 1693, 1694, 1709
1710, 1711, 1712, 1713, 1714, 1715, 1716, 1717, 1718, 1719, 1785, 1786, 1787, 1788, 1789, 1804
1805, 1806, 1807, 1831, 1832, 1898, 1899, 1900, 1901, 1902, 1903, 1904, 1905, 1906, 1921, 1922
1923, 1924, 1925, 1926, 1927, 1928, 1929, 1930, 1931, 1932, 1933, 1992, 1993, 1994, 1995, 1996
1997, 1998, 1999, 2000, 2001, 2002, 2003, 2072, 2073, 2113, 2114, 2115, 2116, 2117, 2118, 2119
2120, 2121, 2122, 2123, 2124, 2125, 2126, 2193, 2194, 2209, 2210, 2211, 2212, 2213, 2214, 2215
2216, 2284, 2285, 2286, 2287, 2288, 2323, 2324, 2325, 2326, 2440, 2441, 2442, 2443, 2477, 2478
2479, 2480, 2481, 2827, 2828, 2829, 2830, 2831, 3140, 3141, 3142, 3143, 3144, 3145, 3146, 3147
3148, 3149, 3201, 3202, 3203, 3204, 3205, 3226, 3227, 3228, 3229, 3230, 3281, 3282, 3283, 3284
3285, 3286, 3287, 3288, 3982, 3983, 4040, 4041, 4042, 4043, 4044, 4045, 4046, 4047, 4102, 4103
4104, 4105, 4106, 4107, 4108, 4109, 4223, 4224, 4225, 4226, 4227, 4228, 4229, 4230, 4231, 4232
** ... 84 like lines cut
*ElSet, ElSet=Yarn3
8, 9, 10, 11, 12, 77, 78, 79, 80, 81, 82, 83, 84, 85, 86, 87
88, 217, 218, 219, 220, 237, 238, 239, 240, 241, 300, 301, 302, 303, 304, 468
469, 511, 512, 513, 514, 515, 516, 517, 518, 519, 520, 521, 649, 650, 651, 652
1035, 1036, 1129, 1130, 1131, 1132, 1133, 1190, 1191, 1192, 1193, 1345, 1346, 1347, 1348, 1349
1350, 1351, 1352, 1353, 1354, 1355, 1356, 1357, 1430, 1431, 1432, 1433, 1434, 1435, 1436, 1437
1438, 1946, 1947, 1948, 1949, 1950, 1951, 1952, 1953, 1954, 1955, 1956, 1957, 2231, 2232, 2233
2234, 2235, 2236, 2237, 2238, 2239, 2240, 2305, 2306, 2367, 2368, 2369, 2370, 2371, 2372, 2373
2374, 2375, 2376, 2377, 2386, 2387, 2388, 2389, 2390, 2391, 2392, 2393, 2394, 2395, 2451, 2452
2453, 2454, 2455, 2456, 2457, 2458, 2459, 2460, 2461, 2462, 2496, 2497, 2498, 2499, 2500, 2501
2502, 2503, 2504, 2505, 2515, 2516, 2517, 2518, 2519, 2520, 2521, 2609, 2610, 2611, 2612, 2613
2614, 2615, 2616, 2617, 2618, 2619, 2633, 2634, 2635, 2636, 2637, 2638, 2639, 2640, 2641, 2642
2643, 2644, 2645, 2657, 2658, 2659, 2660, 2661, 2662, 2663, 2664, 2665, 2666, 2667, 2668, 2669
2679, 2680, 2681, 2682, 2683, 2684, 2685, 2686, 2687, 2688, 2689, 2701, 2702, 2703, 2704, 2705
2706, 2707, 2708, 2731, 2732, 2733, 2734, 2735, 2752, 2753, 2754, 2755, 2756, 2875, 2876, 2916
2917, 2918, 2919, 2940, 2941, 2942, 2943, 2944, 2945, 2946, 2947, 2948, 2983, 2984, 2985, 2986
2987, 2988, 2989, 2990, 3070, 3071, 3072, 3073, 3074, 3305, 3306, 3307, 3308, 3309, 3310, 3311
3312, 3313, 3314, 3315, 3322, 3323, 3324, 3325, 3326, 3327, 3328, 3329, 3330, 3331, 3332, 3430
3431, 3432, 3433, 3434, 3435, 3436, 3437, 3438, 3439, 3440, 3441, 3442, 3443, 3484, 3485, 3486
3487, 3488, 3489, 3490, 3491, 3492, 3493, 3494, 3511, 3512, 3513, 3514, 3527, 3528, 3529, 3530
3531, 3532, 3533, 3534, 3535, 3536, 3537, 3538, 3549, 3550, 3551, 3552, 3553, 3554, 3555, 3556
** ... 89 like lines cut
*****************
*** MATERIALS ***
*****************
*Material, Name=Mat0
*Elastic
3e+09, 0.2
*Expansion
6.5e-06
*Material, Name=Mat1
*Elastic, type=ENGINEERING CONSTANTS
2e+11, 1e+10, 1e+10, 0.3, 0.4, 0.4, 5e+09, 5e+09
5e+09
*Expansion, type=ORTHO
-2e-07, 3e-06, 3e-06
*Solid Section, ElSet=Matrix, Material=Mat0
1.0,
*Solid Section, ElSet=Yarn0, Material=Mat1, Orientation=TexGenOrientations
1.0,
*Solid Section, ElSet=Yarn1, Material=Mat1, Orientation=TexGenOrientations
1.0,
*Solid Section, ElSet=Yarn2, Material=Mat1, Orientation=TexGenOrientations
1.0,
*Solid Section, ElSet=Yarn3, Material=Mat1, Orientation=TexGenOrientations
1.0,
